@<TRIPOS>MOLECULE
HEX
   20    19     1     0     0
SMALL
bcc


@<TRIPOS>ATOM
      1 C           -4.3290     4.0790     0.1970 c3         1 HEX      -0.092100
      2 H           -4.3610     4.9780     0.8220 hc         1 HEX       0.032700
      3 H1          -5.1700     4.1220    -0.5020 hc         1 HEX       0.032700
      4 H2          -4.4670     3.2060     0.8420 hc         1 HEX       0.032700
      5 C1          -3.0160     3.9930    -0.5650 c3         1 HEX      -0.080400
      6 H3          -2.9240     4.8660    -1.2210 hc         1 HEX       0.038700
      7 H4          -3.0300     3.1050    -1.2070 hc         1 HEX       0.038700
      8 C2          -1.8200     3.9280     0.3850 c3         1 HEX      -0.079400
      9 H5          -1.8210     4.8110     1.0370 hc         1 HEX       0.038700
     10 H6          -1.9130     3.0490     1.0340 hc         1 HEX       0.038700
     11 C3          -0.5010     3.8610    -0.3850 c3         1 HEX      -0.079400
     12 H7          -0.4140     4.7360    -1.0410 hc         1 HEX       0.038700
     13 H8          -0.4950     2.9730    -1.0280 hc         1 HEX       0.038700
     14 C4           0.6960     3.8150     0.5650 c3         1 HEX      -0.080400
     15 H9           0.6910     4.6980     1.2140 hc         1 HEX       0.038700
     16 H10          0.6220     2.9350     1.2140 hc         1 HEX       0.038700
     17 C5           2.0110     3.7650    -0.1970 c3         1 HEX      -0.092100
     18 H11          2.1260     4.6450    -0.8380 hc         1 HEX       0.032700
     19 H12          2.0650     2.8710    -0.8270 hc         1 HEX       0.032700
     20 H13          2.8530     3.7410     0.5020 hc         1 HEX       0.032700
@<TRIPOS>BOND
     1     6     5 1   
     2     7     5 1   
     3    12    11 1   
     4    13    11 1   
     5    18    17 1   
     6    19    17 1   
     7     5     1 1   
     8     5     8 1   
     9     3     1 1   
    10    11     8 1   
    11    11    14 1   
    12    17    20 1   
    13    17    14 1   
    14     1     2 1   
    15     1     4 1   
    16     8    10 1   
    17     8     9 1   
    18    14    15 1   
    19    14    16 1   
@<TRIPOS>SUBSTRUCTURE
     1 HEX         1 TEMP              0 ****  ****    0 ROOT
